2015Citenel/2014MasterDissertation/redesCemigDissertacaoEzequielUfmg/SLAU22.m
function mpc = SLAU22

%% MATPOWER Case Format : Version 2
mpc.version = '2';

%%-----  Power Flow Data  -----%%
%% system MVA base
mpc.baseMVA = 100;

%% bus data
%	bus_i	type	Pd	Qd	Gs	Bs	area	Vm	Va	baseKV	zone	Vmax	Vmin
mpc.bus = [
	103036817	3	0	0	0	0	0	1	0	13.8	0	1.1	0.9;
	103036824	1	0	0	0	0	0	1	0	13.8	0	1.1	0.9;
	103036831	1	0	0	0	0	0	1	0	13.8	0	1.1	0.9;
	103036838	1	0.0157892369	0.00612226461	0	0	0	1	0	13.8	0	1.1	0.9;
	103036845	1	0.0159820177	0.00612226461	0	0	0	1	0	13.8	0	1.1	0.9;
	103036852	1	0	0	0	0	0	1	0	13.8	0	1.1	0.9;
	103036859	1	0.016312499	0.00612226461	0	0	0	1	0	13.8	0	1.1	0.9;
	103036866	1	0.0165328199	0.00612226461	0	0	0	1	0	13.8	0	1.1	0.9;
	103036873	1	0.010415414	0.00367335877	0	0	0	1	0	13.8	0	1.1	0.9;
	103036880	1	0.0238426116	0.00914258183	0	0	0	1	0	13.8	0	1.1	0.9;
	103036887	1	0	0	0	0	0	1	0	13.8	0	1.1	0.9;
	103036901	1	0	0	0	0	0	1	0	13.8	0	1.1	0.9;
	103036943	1	0	0	0	0	0	1	0	13.8	0	1.1	0.9;
	103036971	1	0	0	0	0	0	1	0	13.8	0	1.1	0.9;
	103036992	1	0	0	0	0	0	1	0	13.8	0	1.1	0.9;
	103037020	1	0	0	0	0	0	1	0	13.8	0	1.1	0.9;
	103037048	1	0	0	0	0	0	1	0	13.8	0	1.1	0.9;
	103037055	1	0.0155413759	0.00612226461	0	0	0	1	0	13.8	0	1.1	0.9;
	103037062	1	0.0239803122	0.00914258183	0	0	0	1	0	13.8	0	1.1	0.9;
	103037069	1	0	0	0	0	0	1	0	13.8	0	1.1	0.9;
	103037076	1	0.0240353924	0.00914258183	0	0	0	1	0	13.8	0	1.1	0.9;
	103037083	1	0	0	0	0	0	1	0	13.8	0	1.1	0.9;
	103037090	1	0	0	0	0	0	1	0	13.8	0	1.1	0.9;
	103037097	1	0.450602493	0.0790680185	0	0	0	1	0	13.8	0	1.1	0.9;
	103037118	1	0	0	0	0	0	1	0	13.8	0	1.1	0.9;
	103037125	1	0	0	0	0	0	1	0	13.8	0	1.1	0.9;
	103037132	1	0	0	0	0	0	1	0	13.8	0	1.1	0.9;
	103037174	1	0	0	0	0	0	1	0	13.8	0	1.1	0.9;
	103037181	1	0	0	0	0	0	1	0	13.8	0	1.1	0.9;
	103037188	1	0	0	0	0	0	1	0	13.8	0	1.1	0.9;
	103037195	1	0	0	0	0	0	1	0	13.8	0	1.1	0.9;
	103037272	1	0	0	0	0	0	1	0	13.8	0	1.1	0.9;
	103037286	1	0	0	0	0	0	1	0	13.8	0	1.1	0.9;
	103037314	1	0	0	0	0	0	1	0	13.8	0	1.1	0.9;
	103037321	1	0.0107458953	0.00367335877	0	0	0	1	0	13.8	0	1.1	0.9;
	103037328	1	0	0	0	0	0	1	0	13.8	0	1.1	0.9;
	103037335	1	0.0171111623	0.00612226461	0	0	0	1	0	13.8	0	1.1	0.9;
	103037342	1	0	0	0	0	0	1	0	13.8	0	1.1	0.9;
	103037349	1	0.130862431	0.0222445292	0	0	0	1	0	13.8	0	1.1	0.9;
	103037377	1	0	0	0	0	0	1	0	13.8	0	1.1	0.9;
	103037384	1	0	0	0	0	0	1	0	13.8	0	1.1	0.9;
	103037426	1	0	0	0	0	0	1	0	13.8	0	1.1	0.9;
	103037440	1	0	0	0	0	0	1	0	13.8	0	1.1	0.9;
	103037447	1	0	0	0	0	0	1	0	13.8	0	1.1	0.9;
	103037461	1	0	0	0	0	0	1	0	13.8	0	1.1	0.9;
	103037475	1	0	0	0	0	0	1	0	13.8	0	1.1	0.9;
	103037510	1	0	0	0	0	0	1	0	13.8	0	1.1	0.9;
	103037517	1	0.0600439484	0.0128425818	0	0	0	1	0	13.8	0	1.1	0.9;
	103037524	1	0	0	0	0	0	1	0	13.8	0	1.1	0.9;
	103037531	1	0.0882936463	0.0225667938	0	0	0	1	0	13.8	0	1.1	0.9;
	103037559	1	0	0	0	0	0	1	0	13.8	0	1.1	0.9;
	103037566	1	0	0	0	0	0	1	0	13.8	0	1.1	0.9;
	103037601	1	0	0	0	0	0	1	0	13.8	0	1.1	0.9;
	103037608	1	0	0	0	0	0	1	0	13.8	0	1.1	0.9;
	103037615	1	0	0	0	0	0	1	0	13.8	0	1.1	0.9;
	103037622	1	0.00768719235	0.00244890585	0	0	0	1	0	13.8	0	1.1	0.9;
	103037629	1	0	0	0	0	0	1	0	13.8	0	1.1	0.9;
	103037636	1	0	0	0	0	0	1	0	13.8	0	1.1	0.9;
	103037643	1	0	0	0	0	0	1	0	13.8	0	1.1	0.9;
	103037650	1	0	0	0	0	0	1	0	13.8	0	1.1	0.9;
	103037657	1	0	0	0	0	0	1	0	13.8	0	1.1	0.9;
	103037664	1	0	0	0	0	0	1	0	13.8	0	1.1	0.9;
	103037671	1	0	0	0	0	0	1	0	13.8	0	1.1	0.9;
	103037678	1	0	0	0	0	0	1	0	13.8	0	1.1	0.9;
	103037685	1	0	0	0	0	0	1	0	13.8	0	1.1	0.9;
	103037692	1	0.0154312154	0.00612226461	0	0	0	1	0	13.8	0	1.1	0.9;
	103037699	1	0	0	0	0	0	1	0	13.8	0	1.1	0.9;
	103037706	1	0	0	0	0	0	1	0	13.8	0	1.1	0.9;
	103037713	1	0.0151798534	0.00367335877	0	0	0	1	0	13.8	0	1.1	0.9;
	103037720	1	0	0	0	0	0	1	0	13.8	0	1.1	0.9;
	103037727	1	0	0	0	0	0	1	0	13.8	0	1.1	0.9;
	103037734	1	0	0	0	0	0	1	0	13.8	0	1.1	0.9;
	103037741	1	0	0	0	0	0	1	0	13.8	0	1.1	0.9;
	103037748	1	0	0	0	0	0	1	0	13.8	0	1.1	0.9;
	103037755	1	0.0170285419	0.00612226461	0	0	0	1	0	13.8	0	1.1	0.9;
	103037762	1	0	0	0	0	0	1	0	13.8	0	1.1	0.9;
	103037797	1	0	0	0	0	0	1	0	13.8	0	1.1	0.9;
	103037804	1	0	0	0	0	0	1	0	13.8	0	1.1	0.9;
	103037853	1	0	0	0	0	0	1	0	13.8	0	1.1	0.9;
	103037888	1	0	0	0	0	0	1	0	13.8	0	1.1	0.9;
	103037916	1	0	0	0	0	0	1	0	13.8	0	1.1	0.9;
	103037923	1	0	0	0	0	0	1	0	13.8	0	1.1	0.9;
	103037944	1	0	0	0	0	0	1	0	13.8	0	1.1	0.9;
	103037951	1	0	0	0	0	0	1	0	13.8	0	1.1	0.9;
	103037958	1	0.102862431	0.0194445292	0	0	0	1	0	13.8	0	1.1	0.9;
	103037979	1	0	0	0	0	0	1	0	13.8	0	1.1	0.9;
	103038042	1	0	0	0	0	0	1	0	13.8	0	1.1	0.9;
	103038049	1	0.179293646	0.0316667938	0	0	0	1	0	13.8	0	1.1	0.9;
	103038056	1	0	0	0	0	0	1	0	13.8	0	1.1	0.9;
	103038063	1	0.0840439484	0.0152425818	0	0	0	1	0	13.8	0	1.1	0.9;
	103038119	1	0	0	0	0	0	1	0	13.8	0	1.1	0.9;
	103038161	1	0	0	0	0	0	1	0	13.8	0	1.1	0.9;
	103038182	1	0	0	0	0	0	1	0	13.8	0	1.1	0.9;
	103038189	1	0.0770439484	0.0145425818	0	0	0	1	0	13.8	0	1.1	0.9;
	103038196	1	0	0	0	0	0	1	0	13.8	0	1.1	0.9;
	103038203	1	0.231468231	0.0918339692	0	0	0	1	0	13.8	0	1.1	0.9;
	103038210	1	0	0	0	0	0	1	0	13.8	0	1.1	0.9;
	103038217	1	0.0241125047	0.00914258183	0	0	0	1	0	13.8	0	1.1	0.9;
	103038224	1	0	0	0	0	0	1	0	13.8	0	1.1	0.9;
	103038231	1	0	0	0	0	0	1	0	13.8	0	1.1	0.9;
	103038238	1	0	0	0	0	0	1	0	13.8	0	1.1	0.9;
	103038245	1	0	0	0	0	0	1	0	13.8	0	1.1	0.9;
	103038252	1	0.0325533938	0.0122445292	0	0	0	1	0	13.8	0	1.1	0.9;
	103038259	1	0	0	0	0	0	1	0	13.8	0	1.1	0.9;
	103038266	1	0	0	0	0	0	1	0	13.8	0	1.1	0.9;
	103038273	1	0	0	0	0	0	1	0	13.8	0	1.1	0.9;
	103038280	1	0	0	0	0	0	1	0	13.8	0	1.1	0.9;
	103038301	1	0	0	0	0	0	1	0	13.8	0	1.1	0.9;
	103038308	1	0.0308624308	0.0122445292	0	0	0	1	0	13.8	0	1.1	0.9;
	103038329	1	0	0	0	0	0	1	0	13.8	0	1.1	0.9;
	103038336	1	0.0129215642	0.00367335877	0	0	0	1	0	13.8	0	1.1	0.9;
	103038343	1	0	0	0	0	0	1	0	13.8	0	1.1	0.9;
	103038350	1	0.0124974465	0.00367335877	0	0	0	1	0	13.8	0	1.1	0.9;
	103038357	1	0	0	0	0	0	1	0	13.8	0	1.1	0.9;
	103038364	1	0	0	0	0	0	1	0	13.8	0	1.1	0.9;
	103038371	1	0	0	0	0	0	1	0	13.8	0	1.1	0.9;
	103038378	1	0.0130041845	0.00367335877	0	0	0	1	0	13.8	0	1.1	0.9;
	103038385	1	0.0113104676	0.00367335877	0	0	0	1	0	13.8	0	1.1	0.9;
	103038392	1	0	0	0	0	0	1	0	13.8	0	1.1	0.9;
	103038399	1	0.219724862	0.0402890585	0	0	0	1	0	13.8	0	1.1	0.9;
	103038406	1	0	0	0	0	0	1	0	13.8	0	1.1	0.9;
	103038413	1	0	0	0	0	0	1	0	13.8	0	1.1	0.9;
	103038420	1	0.0114619382	0.00367335877	0	0	0	1	0	13.8	0	1.1	0.9;
	103038427	1	0.0188737295	0.00612226461	0	0	0	1	0	13.8	0	1.1	0.9;
	103038434	1	0.00925697876	0.00244890585	0	0	0	1	0	13.8	0	1.1	0.9;
	103038441	1	0	0	0	0	0	1	0	13.8	0	1.1	0.9;
	103038448	1	0	0	0	0	0	1	0	13.8	0	1.1	0.9;
	103038455	1	0	0	0	0	0	1	0	13.8	0	1.1	0.9;
	103038462	1	0.0127838636	0.00367335877	0	0	0	1	0	13.8	0	1.1	0.9;
	103038469	1	0.0112416173	0.00367335877	0	0	0	1	0	13.8	0	1.1	0.9;
	103038476	1	0	0	0	0	0	1	0	13.8	0	1.1	0.9;
	103038483	1	0.0230439484	0.00914258183	0	0	0	1	0	13.8	0	1.1	0.9;
	103038490	1	0	0	0	0	0	1	0	13.8	0	1.1	0.9;
	103038497	1	0	0	0	0	0	1	0	13.8	0	1.1	0.9;
	103038504	1	0.0181989967	0.00612226461	0	0	0	1	0	13.8	0	1.1	0.9;
	103038525	1	0	0	0	0	0	1	0	13.8	0	1.1	0.9;
	103038532	1	0.185724862	0.0368890585	0	0	0	1	0	13.8	0	1.1	0.9;
	103038539	1	0	0	0	0	0	1	0	13.8	0	1.1	0.9;
	103038546	1	0	0	0	0	0	1	0	13.8	0	1.1	0.9;
	103038553	1	0.0166980606	0.00612226461	0	0	0	1	0	13.8	0	1.1	0.9;
	103038560	1	0	0	0	0	0	1	0	13.8	0	1.1	0.9;
	103038567	1	0	0	0	0	0	1	0	13.8	0	1.1	0.9;
	103038574	1	0.0159269374	0.00612226461	0	0	0	1	0	13.8	0	1.1	0.9;
	103038581	1	0	0	0	0	0	1	0	13.8	0	1.1	0.9;
	103038588	1	0	0	0	0	0	1	0	13.8	0	1.1	0.9;
	103038595	1	0	0	0	0	0	1	0	13.8	0	1.1	0.9;
	103038602	1	0	0	0	0	0	1	0	13.8	0	1.1	0.9;
	103038609	1	0	0	0	0	0	1	0	13.8	0	1.1	0.9;
	103038616	1	0	0	0	0	0	1	0	13.8	0	1.1	0.9;
	103038623	1	0	0	0	0	0	1	0	13.8	0	1.1	0.9;
	103038630	1	0	0	0	0	0	1	0	13.8	0	1.1	0.9;
	103038637	1	0	0	0	0	0	1	0	13.8	0	1.1	0.9;
	103038644	1	0	0	0	0	0	1	0	13.8	0	1.1	0.9;
	103038651	1	0	0	0	0	0	1	0	13.8	0	1.1	0.9;
	103038658	1	0	0	0	0	0	1	0	13.8	0	1.1	0.9;
	103038665	1	0	0	0	0	0	1	0	13.8	0	1.1	0.9;
	103038672	1	0	0	0	0	0	1	0	13.8	0	1.1	0.9;
	103038679	1	0.0215451204	0.00612226461	0	0	0	1	0	13.8	0	1.1	0.9;
	103038686	1	0.0114481682	0.00367335877	0	0	0	1	0	13.8	0	1.1	0.9;
	103038693	1	0	0	0	0	0	1	0	13.8	0	1.1	0.9;
	103038700	1	0.0223162435	0.00612226461	0	0	0	1	0	13.8	0	1.1	0.9;
	103038707	1	0	0	0	0	0	1	0	13.8	0	1.1	0.9;
	103038714	1	0.0161472583	0.00612226461	0	0	0	1	0	13.8	0	1.1	0.9;
	103038721	1	0	0	0	0	0	1	0	13.8	0	1.1	0.9;
	103038728	1	0.00805337474	0.00302031721	0	0	0	1	0	13.8	0	1.1	0.9;
	103038735	1	0	0	0	0	0	1	0	13.8	0	1.1	0.9;
	103038742	1	0.0159820177	0.00612226461	0	0	0	1	0	13.8	0	1.1	0.9;
	103038749	1	0.00953413038	0.00367335877	0	0	0	1	0	13.8	0	1.1	0.9;
	103038756	1	0	0	0	0	0	1	0	13.8	0	1.1	0.9;
	103038763	1	0.0160370979	0.00612226461	0	0	0	1	0	13.8	0	1.1	0.9;
	103038770	1	0.0160921781	0.00612226461	0	0	0	1	0	13.8	0	1.1	0.9;
	103038777	1	0.00805337474	0.00302031721	0	0	0	1	0	13.8	0	1.1	0.9;
	103038784	1	0	0	0	0	0	1	0	13.8	0	1.1	0.9;
	103038791	1	0.0161472583	0.00612226461	0	0	0	1	0	13.8	0	1.1	0.9;
	103038798	1	0	0	0	0	0	1	0	13.8	0	1.1	0.9;
	103038805	1	0	0	0	0	0	1	0	13.8	0	1.1	0.9;
	103038812	1	0.0462936463	0.0183667938	0	0	0	1	0	13.8	0	1.1	0.9;
	103038819	1	0	0	0	0	0	1	0	13.8	0	1.1	0.9;
	103038826	1	0	0	0	0	0	1	0	13.8	0	1.1	0.9;
	103038833	1	0	0	0	0	0	1	0	13.8	0	1.1	0.9;
	103038840	1	0.0276431471	0.00914258183	0	0	0	1	0	13.8	0	1.1	0.9;
	103038847	1	0	0	0	0	0	1	0	13.8	0	1.1	0.9;
	103038854	1	0.0652936463	0.0202667938	0	0	0	1	0	13.8	0	1.1	0.9;
	103038889	1	0	0	0	0	0	1	0	13.8	0	1.1	0.9;
	103038931	1	0	0	0	0	0	1	0	13.8	0	1.1	0.9;
	103039141	1	0	0	0	0	0	1	0	13.8	0	1.1	0.9;
	103039148	1	0	0	0	0	0	1	0	13.8	0	1.1	0.9;
	103039155	1	0.0172653869	0.00612226461	0	0	0	1	0	13.8	0	1.1	0.9;
	103039162	1	0.0255914088	0.00914258183	0	0	0	1	0	13.8	0	1.1	0.9;
	103039169	1	0	0	0	0	0	1	0	13.8	0	1.1	0.9;
	103039176	1	0	0	0	0	0	1	0	13.8	0	1.1	0.9;
	103039183	1	0.00677836864	0.00244890585	0	0	0	1	0	13.8	0	1.1	0.9;
	103039190	1	0.00925872925	0.00367335877	0	0	0	1	0	13.8	0	1.1	0.9;
	103039197	1	0	0	0	0	0	1	0	13.8	0	1.1	0.9;
	103039204	1	0.0313030726	0.0122445292	0	0	0	1	0	13.8	0	1.1	0.9;
	103039211	1	0.0314132331	0.0122445292	0	0	0	1	0	13.8	0	1.1	0.9;
	103039239	1	0	0	0	0	0	1	0	13.8	0	1.1	0.9;
	103039246	1	0	0	0	0	0	1	0	13.8	0	1.1	0.9;
	103039253	1	0.0678663068	0.0244890585	0	0	0	1	0	13.8	0	1.1	0.9;
	103039260	1	0	0	0	0	0	1	0	13.8	0	1.1	0.9;
	103039267	1	0	0	0	0	0	1	0	13.8	0	1.1	0.9;
	103039274	1	0	0	0	0	0	1	0	13.8	0	1.1	0.9;
	103039281	1	0.0159820177	0.00612226461	0	0	0	1	0	13.8	0	1.1	0.9;
	103039288	1	0.0314683133	0.0122445292	0	0	0	1	0	13.8	0	1.1	0.9;
	103039295	1	0	0	0	0	0	1	0	13.8	0	1.1	0.9;
	103039302	1	0.0155413759	0.00612226461	0	0	0	1	0	13.8	0	1.1	0.9;
	103039309	1	0.0240353924	0.00914258183	0	0	0	1	0	13.8	0	1.1	0.9;
	103039316	1	0	0	0	0	0	1	0	13.8	0	1.1	0.9;
	103039323	1	0	0	0	0	0	1	0	13.8	0	1.1	0.9;
	103039330	1	0.0357950204	0.00914258183	0	0	0	1	0	13.8	0	1.1	0.9;
	103039337	1	0.034580346	0.0122445292	0	0	0	1	0	13.8	0	1.1	0.9;
	103039344	1	0.0462936463	0.0183667938	0	0	0	1	0	13.8	0	1.1	0.9;
	103039442	1	0	0	0	0	0	1	0	13.8	0	1.1	0.9;
	103039449	1	0.0165328199	0.00612226461	0	0	0	1	0	13.8	0	1.1	0.9;
	104400872	1	0	0	0	0	0	1	0	13.8	0	1.1	0.9;
	104619461	1	0	0	0	0	0	1	0	13.8	0	1.1	0.9;
	104619468	1	0.0778624308	0.0169445292	0	0	0	1	0	13.8	0	1.1	0.9;
	104619531	1	0	0	0	0	0	1	0	13.8	0	1.1	0.9;
	104619538	1	0.0320191156	0.0122445292	0	0	0	1	0	13.8	0	1.1	0.9;
	104619545	1	0	0	0	0	0	1	0	13.8	0	1.1	0.9;
	104619552	1	0	0	0	0	0	1	0	13.8	0	1.1	0.9;
	104619559	1	0	0	0	0	0	1	0	13.8	0	1.1	0.9;
	104619566	1	0.0157341567	0.00612226461	0	0	0	1	0	13.8	0	1.1	0.9;
	104619573	1	0.0248615958	0.00914258183	0	0	0	1	0	13.8	0	1.1	0.9;
	104619580	1	0	0	0	0	0	1	0	13.8	0	1.1	0.9;
	104620693	1	0	0	0	0	0	1	0	13.8	0	1.1	0.9;
	104620700	1	0.0234570501	0.00914258183	0	0	0	1	0	13.8	0	1.1	0.9;
	104620707	1	0.0157066165	0.00612226461	0	0	0	1	0	13.8	0	1.1	0.9;
	104620714	1	0	0	0	0	0	1	0	13.8	0	1.1	0.9;
	104620721	1	0.031137832	0.0122445292	0	0	0	1	0	13.8	0	1.1	0.9;
	104620728	1	0	0	0	0	0	1	0	13.8	0	1.1	0.9;
	104620735	1	0.0237324512	0.00914258183	0	0	0	1	0	13.8	0	1.1	0.9;
	104620742	1	0	0	0	0	0	1	0	13.8	0	1.1	0.9;
	104620749	1	0.029323094	0.00914258183	0	0	0	1	0	13.8	0	1.1	0.9;
	104620756	1	0.0308624308	0.0122445292	0	0	0	1	0	13.8	0	1.1	0.9;
	123954784	1	0.0308624308	0.0122445292	0	0	0	1	0	13.8	0	1.1	0.9;
	123954791	1	0.0240078523	0.00914258183	0	0	0	1	0	13.8	0	1.1	0.9;
	123995902	1	0	0	0	0	0	1	0	13.8	0	1.1	0.9;
	123995909	1	0	0	0	0	0	1	0	13.8	0	1.1	0.9;
	123995916	1	0.0162574188	0.00612226461	0	0	0	1	0	13.8	0	1.1	0.9;
	123995923	1	0	0	0	0	0	1	0	13.8	0	1.1	0.9;
	123995930	1	0.0170836222	0.00612226461	0	0	0	1	0	13.8	0	1.1	0.9;
	123995937	1	0.0322394365	0.0122445292	0	0	0	1	0	13.8	0	1.1	0.9;
	123995944	1	0	0	0	0	0	1	0	13.8	0	1.1	0.9;
	123995951	1	0.0242281732	0.00914258183	0	0	0	1	0	13.8	0	1.1	0.9;
	123995958	1	0	0	0	0	0	1	0	13.8	0	1.1	0.9;
	123995965	1	0	0	0	0	0	1	0	13.8	0	1.1	0.9;
	127100360	1	0.0159269374	0.00612226461	0	0	0	1	0	13.8	0	1.1	0.9;
	127100367	1	0	0	0	0	0	1	0	13.8	0	1.1	0.9;
	127100374	1	0.0230439484	0.00914258183	0	0	0	1	0	13.8	0	1.1	0.9;
	127100381	1	0	0	0	0	0	1	0	13.8	0	1.1	0.9;
	127100388	1	0.0238701517	0.00914258183	0	0	0	1	0	13.8	0	1.1	0.9;
	127100395	1	0.0176619645	0.00612226461	0	0	0	1	0	13.8	0	1.1	0.9;
	127100402	1	0.0188186493	0.00612226461	0	0	0	1	0	13.8	0	1.1	0.9;
	127100409	1	0.0317987947	0.0122445292	0	0	0	1	0	13.8	0	1.1	0.9;
	127100416	1	0.0310827517	0.0122445292	0	0	0	1	0	13.8	0	1.1	0.9;
	127100423	1	0	0	0	0	0	1	0	13.8	0	1.1	0.9;
	127100654	1	0	0	0	0	0	1	0	13.8	0	1.1	0.9;
	127100661	1	0	0	0	0	0	1	0	13.8	0	1.1	0.9;
	127100668	1	0.0237324512	0.00914258183	0	0	0	1	0	13.8	0	1.1	0.9;
	127100675	1	0	0	0	0	0	1	0	13.8	0	1.1	0.9;
	127100682	1	0.0175710822	0.00612226461	0	0	0	1	0	13.8	0	1.1	0.9;
	127100689	1	0.0203333554	0.00612226461	0	0	0	1	0	13.8	0	1.1	0.9;
	127100696	1	0	0	0	0	0	1	0	13.8	0	1.1	0.9;
	139703251	1	0	0	0	0	0	1	0	13.8	0	1.1	0.9;
	139703258	1	0.0237599913	0.00914258183	0	0	0	1	0	13.8	0	1.1	0.9;
	139703265	1	0.0317987947	0.0122445292	0	0	0	1	0	13.8	0	1.1	0.9;
	139703272	1	0	0	0	0	0	1	0	13.8	0	1.1	0.9;
	139703279	1	0	0	0	0	0	1	0	13.8	0	1.1	0.9;
	139703384	1	0	0	0	0	0	1	0	13.8	0	1.1	0.9;
	139703391	1	0.0159820177	0.00612226461	0	0	0	1	0	13.8	0	1.1	0.9;
	139703398	1	0.0259239983	0.00612226461	0	0	0	1	0	13.8	0	1.1	0.9;
	148584895	1	0	0	0	0	0	1	0	13.8	0	1.1	0.9;
	148584898	1	0	0	0	0	0	1	0	13.8	0	1.1	0.9;
	148584899	1	0.0230439484	0.00914258183	0	0	0	1	0	13.8	0	1.1	0.9;
	148690091	1	0	0	0	0	0	1	0	13.8	0	1.1	0.9;
	148690092	1	0.0168770713	0.00612226461	0	0	0	1	0	13.8	0	1.1	0.9;
	148690093	1	0	0	0	0	0	1	0	13.8	0	1.1	0.9;
	148690094	1	0.0159820177	0.00612226461	0	0	0	1	0	13.8	0	1.1	0.9;
	148690095	1	0.00669574831	0.00244890585	0	0	0	1	0	13.8	0	1.1	0.9;
	149571184	1	0	0	0	0	0	1	0	13.8	0	1.1	0.9;
	149712401	1	0	0	0	0	0	1	0	13.8	0	1.1	0.9;
	149712402	1	0.0319089551	0.0122445292	0	0	0	1	0	13.8	0	1.1	0.9;
	149712403	1	0	0	0	0	0	1	0	13.8	0	1.1	0.9;
	149774341	1	0	0	0	0	0	1	0	13.8	0	1.1	0.9;
	149774342	1	0.0322394365	0.0122445292	0	0	0	1	0	13.8	0	1.1	0.9;
	149774343	1	0	0	0	0	0	1	0	13.8	0	1.1	0.9;
	149774344	1	0.0237324512	0.00914258183	0	0	0	1	0	13.8	0	1.1	0.9;
	149774345	1	0.0315509337	0.0122445292	0	0	0	1	0	13.8	0	1.1	0.9;
	149774346	1	0	0	0	0	0	1	0	13.8	0	1.1	0.9;
	149820974	1	0	0	0	0	0	1	0	13.8	0	1.1	0.9;
	149820975	1	0	0	0	0	0	1	0	13.8	0	1.1	0.9;
	149915468	1	0	0	0	0	0	1	0	13.8	0	1.1	0.9;
	149915469	1	0.0154312154	0.00612226461	0	0	0	1	0	13.8	0	1.1	0.9;
	150045812	1	0	0	0	0	0	1	0	13.8	0	1.1	0.9;
	150045813	1	0.0170010018	0.00612226461	0	0	0	1	0	13.8	0	1.1	0.9;
	150045814	1	0	0	0	0	0	1	0	13.8	0	1.1	0.9;
	150045815	1	0	0	0	0	0	1	0	13.8	0	1.1	0.9;
	150045829	1	0	0	0	0	0	1	0	13.8	0	1.1	0.9;
	150045830	1	0.0171111623	0.00612226461	0	0	0	1	0	13.8	0	1.1	0.9;
	150045831	1	0	0	0	0	0	1	0	13.8	0	1.1	0.9;
	150045832	1	0	0	0	0	0	1	0	13.8	0	1.1	0.9;
	150045833	1	0.0325699178	0.0122445292	0	0	0	1	0	13.8	0	1.1	0.9;
	150045834	1	0	0	0	0	0	1	0	13.8	0	1.1	0.9;
	150045835	1	0.0174967239	0.00612226461	0	0	0	1	0	13.8	0	1.1	0.9;
	150045836	1	0.00993346201	0.00367335877	0	0	0	1	0	13.8	0	1.1	0.9;
	150116598	1	0	0	0	0	0	1	0	13.8	0	1.1	0.9;
	150116599	1	0.0308624308	0.0122445292	0	0	0	1	0	13.8	0	1.1	0.9;
	150116600	1	0	0	0	0	0	1	0	13.8	0	1.1	0.9;
	150116601	1	0.0159820177	0.00612226461	0	0	0	1	0	13.8	0	1.1	0.9;
	150116602	1	0.0163400391	0.00612226461	0	0	0	1	0	13.8	0	1.1	0.9;
	150116603	1	0	0	0	0	0	1	0	13.8	0	1.1	0.9;
	150224270	1	0	0	0	0	0	1	0	13.8	0	1.1	0.9;
	150224271	1	0	0	0	0	0	1	0	13.8	0	1.1	0.9;
	150224272	1	0.0230990286	0.00914258183	0	0	0	1	0	13.8	0	1.1	0.9;
	150224273	1	0.0245035743	0.00914258183	0	0	0	1	0	13.8	0	1.1	0.9;
	150224274	1	0	0	0	0	0	1	0	13.8	0	1.1	0.9;
	150224275	1	0	0	0	0	0	1	0	13.8	0	1.1	0.9;
	150224276	1	0.0155413759	0.00612226461	0	0	0	1	0	13.8	0	1.1	0.9;
	150224277	1	0.0308624308	0.0122445292	0	0	0	1	0	13.8	0	1.1	0.9;
	150224278	1	0	0	0	0	0	1	0	13.8	0	1.1	0.9;
	150224279	1	0.0167256007	0.00612226461	0	0	0	1	0	13.8	0	1.1	0.9;
	150224280	1	0	0	0	0	0	1	0	13.8	0	1.1	0.9;
	150224281	1	0	0	0	0	0	1	0	13.8	0	1.1	0.9;
	150224282	1	0.0181576866	0.00612226461	0	0	0	1	0	13.8	0	1.1	0.9;
	150224283	1	0	0	0	0	0	1	0	13.8	0	1.1	0.9;
	150224284	1	0	0	0	0	0	1	0	13.8	0	1.1	0.9;
	150224285	1	0.0159820177	0.00612226461	0	0	0	1	0	13.8	0	1.1	0.9;
	150227617	1	0	0	0	0	0	1	0	13.8	0	1.1	0.9;
	150227618	1	0	0	0	0	0	1	0	13.8	0	1.1	0.9;
	150227619	1	0	0	0	0	0	1	0	13.8	0	1.1	0.9;
	150227620	1	0.0166429804	0.00612226461	0	0	0	1	0	13.8	0	1.1	0.9;
	150227621	1	0	0	0	0	0	1	0	13.8	0	1.1	0.9;
	150227622	1	0.0247817295	0.00914258183	0	0	0	1	0	13.8	0	1.1	0.9;
	150227623	1	0	0	0	0	0	1	0	13.8	0	1.1	0.9;
	150227624	1	0.0159131674	0.00612226461	0	0	0	1	0	13.8	0	1.1	0.9;
	150227625	1	0	0	0	0	0	1	0	13.8	0	1.1	0.9;
	150227626	1	0	0	0	0	0	1	0	13.8	0	1.1	0.9;
	150227627	1	0.00964429083	0.00367335877	0	0	0	1	0	13.8	0	1.1	0.9;
	150227628	1	0.00975445128	0.00367335877	0	0	0	1	0	13.8	0	1.1	0.9;
	150227629	1	0.015816777	0.00612226461	0	0	0	1	0	13.8	0	1.1	0.9;
	150342138	1	0	0	0	0	0	1	0	13.8	0	1.1	0.9;
	150342139	1	0.193724862	0.0376890585	0	0	0	1	0	13.8	0	1.1	0.9;
	150342140	1	0	0	0	0	0	1	0	13.8	0	1.1	0.9;
	150342141	1	0.106862431	0.0198445292	0	0	0	1	0	13.8	0	1.1	0.9;
	150342142	1	0	0	0	0	0	1	0	13.8	0	1.1	0.9;
	150342143	1	0.0308624308	0.0122445292	0	0	0	1	0	13.8	0	1.1	0.9;
	150342144	1	0	0	0	0	0	1	0	13.8	0	1.1	0.9;
	150342145	1	0.151862431	0.0243445292	0	0	0	1	0	13.8	0	1.1	0.9;
	150397169	1	0	0	0	0	0	1	0	13.8	0	1.1	0.9;
	150405625	1	0	0	0	0	0	1	0	13.8	0	1.1	0.9;
	150405626	1	0	0	0	0	0	1	0	13.8	0	1.1	0.9;
	150405627	1	0	0	0	0	0	1	0	13.8	0	1.1	0.9;
	150406173	1	0	0	0	0	0	1	0	13.8	0	1.1	0.9;
	150406174	1	0	0	0	0	0	1	0	13.8	0	1.1	0.9;
	150406175	1	0.0230439484	0.00914258183	0	0	0	1	0	13.8	0	1.1	0.9;
	150406176	1	0	0	0	0	0	1	0	13.8	0	1.1	0.9;
	150406177	1	0	0	0	0	0	1	0	13.8	0	1.1	0.9;
	150406178	1	0	0	0	0	0	1	0	13.8	0	1.1	0.9;
	150406179	1	0	0	0	0	0	1	0	13.8	0	1.1	0.9;
	150406180	1	0	0	0	0	0	1	0	13.8	0	1.1	0.9;
	150406181	1	0	0	0	0	0	1	0	13.8	0	1.1	0.9;
	150406182	1	0	0	0	0	0	1	0	13.8	0	1.1	0.9;
	150406183	1	0.0465415073	0.0183667938	0	0	0	1	0	13.8	0	1.1	0.9;
	2809374	1	0	0	0	0	0	1	0	13.8	0	1.1	0.9;
	2810550	1	0	0	0	0	0	1	0	13.8	0	1.1	0.9;
	2810872	1	0	0	0	0	0	1	0	13.8	0	1.1	0.9;
	2810949	1	0	0	0	0	0	1	0	13.8	0	1.1	0.9;
	2817130	1	0	0	0	0	0	1	0	13.8	0	1.1	0.9;
	3098320	1	0	0	0	0	0	1	0	13.8	0	1.1	0.9;
	3734354	1	0	0	0	0	0	1	0	13.8	0	1.1	0.9;
	3774632	1	0	0	0	0	0	1	0	13.8	0	1.1	0.9;
	3783067	1	0	0	0	0	0	1	0	13.8	0	1.1	0.9;
	3787239	1	0	0	0	0	0	1	0	13.8	0	1.1	0.9;
	62144581	1	0	0	0	0	0	1	0	13.8	0	1.1	0.9;
];

%% generator data
%	bus	Pg	Qg	Qmax	Qmin	Vg	mBase	status	Pmax	Pmin	Pc1	Pc2	Qc1min	Qc1max	Qc2min	Qc2max	ramp_agc	ramp_10	ramp_30	ramp_q	apf
mpc.gen = [
	103036817	5	0	2.5	-2.5	1	100	1	10	5	0	0	0	0	0	0	0	0	0	0	0;
];

%% branch data
%	fbus	tbus	r	x	b	rateA	rateB	rateC	ratio	angle	status	angmin	angmax
mpc.branch = [
	103036880	103036887	0.00453950231	0.00479874485	-2.62549884e-07	0.0037812	0.005658	0.0062928	1	0	1	-360	360;
	103037699	103037706	0.0064976156	0.0123376958	-2.62549884e-07	0.003519	0.0052716	0.005865	1	0	1	-360	360;
	103037734	103037748	0.00712421251	0.0135274803	-2.62549884e-07	0.003519	0.0052716	0.005865	1	0	1	-360	360;
	103038196	103038203	0.00561121613	0.000996639361	-2.62549884e-07	0.001449	0.0021666	0.002415	1	0	1	-360	360;
	103038231	2810872	0.004399332	0.00556134149	-2.62549884e-07	0.0025944	0.0038916	0.0043332	1	0	1	-360	360;
	103038427	103038434	0.0819144551	0.0550208152	-2.62549884e-07	0.001656	0.002484	0.0027738	1	0	1	-360	360;
	103038434	103038441	0.00806187441	0.00541505039	-2.62549884e-07	0.001656	0.002484	0.0027738	1	0	1	-360	360;
	103038574	103038581	0.0153707512	0.0107546846	-2.62549884e-07	0.0016008	0.0024012	0.0026772	1	0	1	-360	360;
	103038546	103038567	2.62549884e-05	2.62549884e-05	-2.62549884e-07	6	8	10	1	0	1	-360	360;
	103038588	103038595	2.62549884e-05	2.62549884e-05	-2.62549884e-07	6	8	10	1	0	1	-360	360;
	103038644	103038658	2.62549884e-05	2.62549884e-05	-2.62549884e-07	6	8	10	1	0	1	-360	360;
	103038693	103038700	0.177417573	0.198441743	-2.62549884e-07	0.0006624	0.0013662	0.0015318	1	0	1	-360	360;
	103038672	103038693	2.62549884e-05	2.62549884e-05	-2.62549884e-07	6	8	10	1	0	1	-360	360;
	103038609	103038784	2.62549884e-05	2.62549884e-05	-2.62549884e-07	6	8	10	1	0	1	-360	360;
	103038847	103038854	0.0217597486	0.0243383017	-2.62549884e-07	0.0006624	0.0013662	0.0015318	1	0	1	-360	360;
	103039197	103039204	0.120183481	0.13442535	-2.62549884e-07	0.0006624	0.0013662	0.0015318	1	0	1	-360	360;
	103039267	103039281	0.0334817221	0.010221867	-2.62549884e-07	0.000828	0.001242	0.0013938	1	0	1	-360	360;
	103039274	103039288	0.0225523206	0.00688515425	-2.62549884e-07	0.000828	0.001242	0.0013938	1	0	1	-360	360;
	103037132	103039316	2.62549884e-05	2.62549884e-05	-2.62549884e-07	6	8	10	1	0	1	-360	360;
	103037797	104619531	2.62549884e-05	2.62549884e-05	-2.62549884e-07	6	8	10	1	0	1	-360	360;
	104619580	103037944	2.62549884e-05	2.62549884e-05	-2.62549884e-07	6	8	10	1	0	1	-360	360;
	104620714	104620721	0.0204447012	0.00842784004	-2.62549884e-07	0.001863	0.0028014	0.003105	1	0	1	-360	360;
	103037853	104620693	2.62549884e-05	2.62549884e-05	-2.62549884e-07	6	8	10	1	0	1	-360	360;
	123995937	123995944	0.0167051925	0.0317198795	-2.62549884e-07	0.003519	0.0052716	0.005865	1	0	1	-360	360;
	123995965	2810550	2.62549884e-05	2.62549884e-05	-2.62549884e-07	6	8	10	1	0	1	-360	360;
	103037566	127100675	0.00968704579	0.010240255	-2.62549884e-07	0.0037812	0.005658	0.0062928	1	0	1	-360	360;
	139703272	103037174	0.00688972609	0.00728318554	-2.62549884e-07	0.0037812	0.005658	0.0062928	1	0	1	-360	360;
	149712401	104400872	0.00415073464	0.00438777538	-2.62549884e-07	0.0037812	0.005658	0.0062928	1	0	1	-360	360;
	149712403	103037384	0.00267800882	0.00179878177	-2.62549884e-07	0.001656	0.002484	0.0027738	1	0	1	-360	360;
	149774343	148584895	0.0030925677	0.0032691785	-2.62549884e-07	0.0037812	0.005658	0.0062928	1	0	1	-360	360;
	149820975	103037118	0.00376869825	0.0039839216	-2.62549884e-07	0.0037812	0.005658	0.0062928	1	0	1	-360	360;
	150045831	150045833	0.0076536809	0.00809076838	-2.62549884e-07	0.0037812	0.005658	0.0062928	1	0	1	-360	360;
	150116600	150116601	0.00402741688	0.00425741517	-2.62549884e-07	0.0037812	0.005658	0.0062928	1	0	1	-360	360;
	150224271	150224272	0.029262112	0.00893363297	-2.62549884e-07	0.000828	0.001242	0.0013938	1	0	1	-360	360;
	103036971	150227617	2.62549884e-05	2.62549884e-05	-2.62549884e-07	6	8	10	1	0	1	-360	360;
	150342138	150342139	0.00913904642	0.00202058391	-2.62549884e-07	0.0009522	0.0014352	0.0016008	1	0	1	-360	360;
	103037699	150342144	2.62549884e-05	2.62549884e-05	-2.62549884e-07	6	8	10	1	0	1	-360	360;
	150405626	150405627	2.62549884e-05	2.62549884e-05	-2.62549884e-07	6	8	10	1	0	1	-360	360;
	150406174	150406176	0.00308167735	0.00325766621	-2.62549884e-07	0.0037812	0.005658	0.0062928	1	0	1	-360	360;
	150406182	150406183	0.0347933572	0.0389164067	-2.62549884e-07	0.0006624	0.0013662	0.0015318	1	0	1	-360	360;
	103037762	150406173	2.62549884e-05	2.62549884e-05	-2.62549884e-07	6	8	10	1	0	1	-360	360;
	103036873	103036880	0.0145269275	0.0153565334	-2.62549884e-07	0.0037812	0.005658	0.0062928	1	0	1	-360	360;
	103037090	103037097	0.00213076964	0.00278899679	-2.62549884e-07	0.002415	0.0036294	0.0040434	1	0	1	-360	360;
	103037328	103037335	0.0418065514	0.00742549453	-2.62549884e-07	0.001449	0.0021666	0.002415	1	0	1	-360	360;
	103037447	103037524	2.62549884e-05	2.62549884e-05	-2.62549884e-07	6	8	10	1	0	1	-360	360;
	103037636	103037650	0.00523922032	0.00994825035	-2.62549884e-07	0.003519	0.0052716	0.005865	1	0	1	-360	360;
	103038224	103038231	0.0247911149	0.0313392705	-2.62549884e-07	0.0025944	0.0038916	0.0043332	1	0	1	-360	360;
	103038301	103038308	0.00694573984	0.00305489316	-2.62549884e-07	0.0012282	0.0018492	0.0020562	1	0	1	-360	360;
	103038364	103038371	0.0229802227	0.0242925805	-2.62549884e-07	0.0037812	0.005658	0.0062928	1	0	1	-360	360;
	103038343	103038392	2.62549884e-05	2.62549884e-05	-2.62549884e-07	6	8	10	1	0	1	-360	360;
	103038420	103038427	0.0795288179	0.0534184154	-2.62549884e-07	0.001656	0.002484	0.0027738	1	0	1	-360	360;
	103038448	103038455	0.0312710555	0.0210043387	-2.62549884e-07	0.001656	0.002484	0.0027738	1	0	1	-360	360;
	103038497	103038504	0.0438813849	0.00779401727	-2.62549884e-07	0.001449	0.0021666	0.002415	1	0	1	-360	360;
	103038413	103038525	2.62549884e-05	2.62549884e-05	-2.62549884e-07	6	8	10	1	0	1	-360	360;
	103038539	103038553	0.00327047837	0.00620999607	-2.62549884e-07	0.003519	0.0052716	0.005865	1	0	1	-360	360;
	103038637	103038651	0.0133984129	0.00899953004	-2.62549884e-07	0.001656	0.002484	0.0027738	1	0	1	-360	360;
	103038665	103038679	0.129846596	0.145233555	-2.62549884e-07	0.0006624	0.0013662	0.0015318	1	0	1	-360	360;
	103038889	103039141	2.62549884e-05	2.62549884e-05	-2.62549884e-07	6	8	10	1	0	1	-360	360;
	103039204	103039211	0.0350296419	0.0144401337	-2.62549884e-07	0.001863	0.0028014	0.003105	1	0	1	-360	360;
	103039330	103039344	0.0589759363	0.0243114219	-2.62549884e-07	0.001863	0.0028014	0.003105	1	0	1	-360	360;
	104619531	104619538	0.0314525905	0.0129655796	-2.62549884e-07	0.001863	0.0028014	0.003105	1	0	1	-360	360;
	104619545	103037888	0.0179041688	0.00738056619	-2.62549884e-07	0.001863	0.0028014	0.003105	1	0	1	-360	360;
	104620714	103038119	0.0215370129	0.00887811946	-2.62549884e-07	0.001863	0.0028014	0.003105	1	0	1	-360	360;
	104620742	104620756	0.0145607865	0.00258622241	-2.62549884e-07	0.001449	0.0021666	0.002415	1	0	1	-360	360;
	104620749	103038161	0.0372346022	0.015349076	-2.62549884e-07	0.001863	0.0028014	0.003105	1	0	1	-360	360;
	123954784	103037447	0.00833829078	0.0036673685	-2.62549884e-07	0.0012282	0.0018492	0.0020562	1	0	1	-360	360;
	123995902	123995909	0.00439227836	0.00834007391	-2.62549884e-07	0.003519	0.0052716	0.005865	1	0	1	-360	360;
	103037559	103037566	0.00459836341	0.00486096739	-2.62549884e-07	0.0037812	0.005658	0.0062928	1	0	1	-360	360;
	127100675	127100689	0.00574533603	0.00607344149	-2.62549884e-07	0.0037812	0.005658	0.0062928	1	0	1	-360	360;
	103037118	139703251	2.62549884e-05	2.62549884e-05	-2.62549884e-07	6	8	10	1	0	1	-360	360;
	149774345	103037426	0.00389157521	0.00411381583	-2.62549884e-07	0.0037812	0.005658	0.0062928	1	0	1	-360	360;
	149820975	103037132	0.00436462213	0.00293165677	-2.62549884e-07	0.001656	0.002484	0.0027738	1	0	1	-360	360;
	150045812	103036971	0.013911455	0.0147059123	-2.62549884e-07	0.0037812	0.005658	0.0062928	1	0	1	-360	360;
	150045814	103036992	0.00805548199	0.0085155156	-2.62549884e-07	0.0037812	0.005658	0.0062928	1	0	1	-360	360;
	150045831	150045832	0.0292263786	0.00892272366	-2.62549884e-07	0.000828	0.001242	0.0013938	1	0	1	-360	360;
	150224283	103037272	0.00984272486	0.0017482212	-2.62549884e-07	0.001449	0.0021666	0.002415	1	0	1	-360	360;
	103037916	150342140	2.62549884e-05	2.62549884e-05	-2.62549884e-07	6	8	10	1	0	1	-360	360;
	150342144	150342145	0.0114494677	0.00253140307	-2.62549884e-07	0.0009522	0.0014352	0.0016008	1	0	1	-360	360;
	103036852	103036866	0.0132503285	0.0140070302	-2.62549884e-07	0.0037812	0.005658	0.0062928	1	0	1	-360	360;
	103036866	103036873	0.0179750447	0.0190015661	-2.62549884e-07	0.0037812	0.005658	0.0062928	1	0	1	-360	360;
	103037615	103037629	0.00316881639	0.00601695993	-2.62549884e-07	0.003519	0.0052716	0.005865	1	0	1	-360	360;
	103037706	103037713	0.00596713899	0.0113304249	-2.62549884e-07	0.003519	0.0052716	0.005865	1	0	1	-360	360;
	103037727	103037734	0.0130924407	0.0248599733	-2.62549884e-07	0.003519	0.0052716	0.005865	1	0	1	-360	360;
	103038357	103038364	2.62549884e-05	2.62549884e-05	-2.62549884e-07	6	8	10	1	0	1	-360	360;
	103038378	103038385	0.0462477844	0.0269891197	-2.62549884e-07	0.003519	0.0052716	0.005865	1	0	1	-360	360;
	103038406	103038413	0.0187522613	0.0125956366	-2.62549884e-07	0.001656	0.002484	0.0027738	1	0	1	-360	360;
	103038462	103038469	0.128469432	0.0228181716	-2.62549884e-07	0.001449	0.0021666	0.002415	1	0	1	-360	360;
	103038539	103038546	0.0146599173	0.0102573248	-2.62549884e-07	0.0016008	0.0024012	0.0026772	1	0	1	-360	360;
	103038567	103038574	0.0540350222	0.0378074967	-2.62549884e-07	0.0016008	0.0024012	0.0026772	1	0	1	-360	360;
	103038700	103038707	0.17008346	0.190238529	-2.62549884e-07	0.0006624	0.0013662	0.0015318	1	0	1	-360	360;
	103038770	103038777	0.195317601	0.059629864	-2.62549884e-07	0.000828	0.001242	0.0013938	1	0	1	-360	360;
	103038791	103038798	0.0257409132	0.0287912386	-2.62549884e-07	0.0006624	0.0013662	0.0015318	1	0	1	-360	360;
	103038819	103038826	0.0612600572	0.0187025074	-2.62549884e-07	0.000828	0.001242	0.0013938	1	0	1	-360	360;
	103039141	103039148	0.0528570964	0.0161371093	-2.62549884e-07	0.000828	0.001242	0.0013938	1	0	1	-360	360;
	103039169	103039176	0.00570754765	0.0039934857	-2.62549884e-07	0.0016008	0.0024012	0.0026772	1	0	1	-360	360;
	103037559	103039169	2.62549884e-05	2.62549884e-05	-2.62549884e-07	6	8	10	1	0	1	-360	360;
	103037384	103039197	2.62549884e-05	2.62549884e-05	-2.62549884e-07	6	8	10	1	0	1	-360	360;
	103037181	103039239	2.62549884e-05	2.62549884e-05	-2.62549884e-07	6	8	10	1	0	1	-360	360;
	103039323	103039337	0.0400113474	0.0164937229	-2.62549884e-07	0.001863	0.0028014	0.003105	1	0	1	-360	360;
	104620742	104620749	0.0517170581	0.0213191227	-2.62549884e-07	0.001863	0.0028014	0.003105	1	0	1	-360	360;
	104620728	2810949	2.62549884e-05	2.62549884e-05	-2.62549884e-07	6	8	10	1	0	1	-360	360;
	123995944	123995958	0.0146797772	0.0278740136	-2.62549884e-07	0.003519	0.0052716	0.005865	1	0	1	-360	360;
	123995944	123995951	0.00527727154	0.0100205021	-2.62549884e-07	0.003519	0.0052716	0.005865	1	0	1	-360	360;
	123995923	123995930	0.0274190323	0.0113028416	-2.62549884e-07	0.001863	0.0028014	0.003105	1	0	1	-360	360;
	127100696	103037601	2.62549884e-05	2.62549884e-05	-2.62549884e-07	6	8	10	1	0	1	-360	360;
	139703272	103037181	0.00246670525	0.0026075742	-2.62549884e-07	0.0037812	0.005658	0.0062928	1	0	1	-360	360;
	149712403	103037377	0.00964506086	0.0101958724	-2.62549884e-07	0.0037812	0.005658	0.0062928	1	0	1	-360	360;
	149774343	149571184	0.00284633798	0.00300888705	-2.62549884e-07	0.0037812	0.005658	0.0062928	1	0	1	-360	360;
	149774343	149774344	0.00366697581	0.00387638998	-2.62549884e-07	0.0037812	0.005658	0.0062928	1	0	1	-360	360;
	149774344	149774346	0.00790855031	0.00836019291	-2.62549884e-07	0.0037812	0.005658	0.0062928	1	0	1	-360	360;
	103037377	149774341	2.62549884e-05	2.62549884e-05	-2.62549884e-07	6	8	10	1	0	1	-360	360;
	149820974	149820975	0.00181968437	0.00192360317	-2.62549884e-07	0.0037812	0.005658	0.0062928	1	0	1	-360	360;
	149820975	103037125	0.0107590076	0.00722667771	-2.62549884e-07	0.001656	0.002484	0.0027738	1	0	1	-360	360;
	150045813	150045814	0.00561238938	0.0059329025	-2.62549884e-07	0.0037812	0.005658	0.0062928	1	0	1	-360	360;
	150116599	150116600	0.0135131479	0.0142848586	-2.62549884e-07	0.0037812	0.005658	0.0062928	1	0	1	-360	360;
	150116601	150116602	0.015990807	0.0169040123	-2.62549884e-07	0.0037812	0.005658	0.0062928	1	0	1	-360	360;
	103036852	103036859	0.0276332294	0.0309077962	-2.62549884e-07	0.0006624	0.0013662	0.0015318	1	0	1	-360	360;
	103037048	103037055	0.0132520871	0.00546285658	-2.62549884e-07	0.001863	0.0028014	0.003105	1	0	1	-360	360;
	103037069	103037076	0.0518299521	0.0213656605	-2.62549884e-07	0.001863	0.0028014	0.003105	1	0	1	-360	360;
	103037020	103037048	2.62549884e-05	2.62549884e-05	-2.62549884e-07	6	8	10	1	0	1	-360	360;
	103037272	103037314	2.62549884e-05	2.62549884e-05	-2.62549884e-07	6	8	10	1	0	1	-360	360;
	103037734	3783067	0.00348721043	0.00662152768	-2.62549884e-07	0.003519	0.0052716	0.005865	1	0	1	-360	360;
	103037951	103037958	0.0196857367	0.0220185173	-2.62549884e-07	0.0006624	0.0013662	0.0015318	1	0	1	-360	360;
	103038042	103038049	0.0128076908	0.0143254157	-2.62549884e-07	0.0006624	0.0013662	0.0015318	1	0	1	-360	360;
	103038224	103038245	0.0256240052	0.0172112926	-2.62549884e-07	0.001656	0.002484	0.0027738	1	0	1	-360	360;
	103038231	103038252	0.00246855801	0.00312058605	-2.62549884e-07	0.0025944	0.0038916	0.0043332	1	0	1	-360	360;
	103038252	103038273	0.00687928747	0.00869633545	-2.62549884e-07	0.0025944	0.0038916	0.0043332	1	0	1	-360	360;
	103038350	103038357	0.0249480021	0.0167572306	-2.62549884e-07	0.001656	0.002484	0.0027738	1	0	1	-360	360;
	103038371	103038378	0.0180392001	0.0105272531	-2.62549884e-07	0.003519	0.0052716	0.005865	1	0	1	-360	360;
	103038392	103038399	0.0100703911	0.00676414346	-2.62549884e-07	0.001656	0.002484	0.0027738	1	0	1	-360	360;
	103038476	103038483	0.0128184215	0.00528408828	-2.62549884e-07	0.001863	0.0028014	0.003105	1	0	1	-360	360;
	103038581	103038588	0.0191698744	0.0134128743	-2.62549884e-07	0.0016008	0.0024012	0.0026772	1	0	1	-360	360;
	103038658	103038665	0.108160418	0.0726498681	-2.62549884e-07	0.001656	0.002484	0.0027738	1	0	1	-360	360;
	103038686	2817130	0.0212809277	0.014294107	-2.62549884e-07	0.001656	0.002484	0.0027738	1	0	1	-360	360;
	103038707	103038721	0.015969016	0.0178613612	-2.62549884e-07	0.0006624	0.0013662	0.0015318	1	0	1	-360	360;
	103038798	103038805	2.62549884e-05	2.62549884e-05	-2.62549884e-07	6	8	10	1	0	1	-360	360;
	103038826	103038840	0.0156949971	0.00732976259	-2.62549884e-07	0.0011178	0.0016836	0.0018768	1	0	1	-360	360;
	103039148	103039155	0.134304615	0.150219853	-2.62549884e-07	0.0006624	0.0013662	0.0015318	1	0	1	-360	360;
	103039260	103039267	0.0945665761	0.0288708854	-2.62549884e-07	0.000828	0.001242	0.0013938	1	0	1	-360	360;
	104619538	104619545	0.0134608849	0.00554892849	-2.62549884e-07	0.001863	0.0028014	0.003105	1	0	1	-360	360;
	104620700	104620707	0.00963622281	0.0101865296	-2.62549884e-07	0.0037812	0.005658	0.0062928	1	0	1	-360	360;
	103037461	3774632	0.0410462577	0.0180530707	-2.62549884e-07	0.0012282	0.0018492	0.0020562	1	0	1	-360	360;
	123995909	123995923	0.0263019247	0.0115681802	-2.62549884e-07	0.0012282	0.0018492	0.0020562	1	0	1	-360	360;
	127100416	127100423	0.0282524142	0.0116463834	-2.62549884e-07	0.001863	0.0028014	0.003105	1	0	1	-360	360;
	127100689	127100696	0.00562883642	0.0059502888	-2.62549884e-07	0.0037812	0.005658	0.0062928	1	0	1	-360	360;
	103037426	127100654	2.62549884e-05	2.62549884e-05	-2.62549884e-07	6	8	10	1	0	1	-360	360;
	139703251	139703258	0.00845254579	0.00893525496	-2.62549884e-07	0.0037812	0.005658	0.0062928	1	0	1	-360	360;
	139703272	139703279	0.00144949903	0.00153227722	-2.62549884e-07	0.0037812	0.005658	0.0062928	1	0	1	-360	360;
	148690091	103037475	0.0740433177	0.0325659225	-2.62549884e-07	0.0012282	0.0018492	0.0020562	1	0	1	-360	360;
	149712402	149712403	0.013497926	0.0142687675	-2.62549884e-07	0.0037812	0.005658	0.0062928	1	0	1	-360	360;
	103037188	149712401	2.62549884e-05	2.62549884e-05	-2.62549884e-07	6	8	10	1	0	1	-360	360;
	148584895	149774345	0.0015119332	0.00159827689	-2.62549884e-07	0.0037812	0.005658	0.0062928	1	0	1	-360	360;
	149915468	149915469	0.00444392779	0.000789310775	-2.62549884e-07	0.001449	0.0021666	0.002415	1	0	1	-360	360;
	150224270	150224271	0.0828768644	0.0253020523	-2.62549884e-07	0.000828	0.001242	0.0013938	1	0	1	-360	360;
	103036817	103036824	0.0048454138	0.00512212637	-2.62549884e-07	0.0037812	0.005658	0.0062928	1	0	1	-360	360;
	103036845	103036852	0.0331489063	0.0350419787	-2.62549884e-07	0.0037812	0.005658	0.0062928	1	0	1	-360	360;
	103037062	103037069	0.0506447883	0.0208771051	-2.62549884e-07	0.001863	0.0028014	0.003105	1	0	1	-360	360;
	103037328	103037342	2.62549884e-05	2.62549884e-05	-2.62549884e-07	6	8	10	1	0	1	-360	360;
	103037475	103037510	2.62549884e-05	2.62549884e-05	-2.62549884e-07	6	8	10	1	0	1	-360	360;
	103037524	103037531	0.00724569495	0.00318682019	-2.62549884e-07	0.0012282	0.0018492	0.0020562	1	0	1	-360	360;
	103037664	103037678	0.0052289796	0.00351223383	-2.62549884e-07	0.001656	0.002484	0.0027738	1	0	1	-360	360;
	103037741	3098320	0.00283623267	0.00538544877	-2.62549884e-07	0.003519	0.0052716	0.005865	1	0	1	-360	360;
	103037741	103037755	0.00349085666	0.003690213	-2.62549884e-07	0.0037812	0.005658	0.0062928	1	0	1	-360	360;
	103038119	103038182	2.62549884e-05	2.62549884e-05	-2.62549884e-07	6	8	10	1	0	1	-360	360;
	103038329	103038336	0.069131298	0.046434544	-2.62549884e-07	0.001656	0.002484	0.0027738	1	0	1	-360	360;
	103038455	103038462	0.105761522	0.0187848933	-2.62549884e-07	0.001449	0.0021666	0.002415	1	0	1	-360	360;
	103038483	103038490	0.017193333	0.0070875411	-2.62549884e-07	0.001863	0.0028014	0.003105	1	0	1	-360	360;
	103038609	103038623	0.010779819	0.00724065649	-2.62549884e-07	0.001656	0.002484	0.0027738	1	0	1	-360	360;
	103038742	103038756	0.156881122	0.1754717	-2.62549884e-07	0.0006624	0.0013662	0.0015318	1	0	1	-360	360;
	103038784	103038791	0.0257409132	0.0287912386	-2.62549884e-07	0.0006624	0.0013662	0.0015318	1	0	1	-360	360;
	103039176	103039183	0.0220215264	0.0246311005	-2.62549884e-07	0.0006624	0.0013662	0.0015318	1	0	1	-360	360;
	103039267	103039274	0.0820190446	0.0250401625	-2.62549884e-07	0.000828	0.001242	0.0013938	1	0	1	-360	360;
	103039295	103039309	0.0320063403	0.0140771109	-2.62549884e-07	0.0012282	0.0018492	0.0020562	1	0	1	-360	360;
	104619559	104619580	0.0209691922	0.00864404894	-2.62549884e-07	0.001863	0.0028014	0.003105	1	0	1	-360	360;
	104619559	104619573	0.0516483984	0.0212908194	-2.62549884e-07	0.001863	0.0028014	0.003105	1	0	1	-360	360;
	103037916	103037923	0.0150775401	0.00621535599	-2.62549884e-07	0.001863	0.0028014	0.003105	1	0	1	-360	360;
	104620707	104620714	0.00987409289	0.010437984	-2.62549884e-07	0.0037812	0.005658	0.0062928	1	0	1	-360	360;
	103038119	104620735	0.0225351563	0.00928958025	-2.62549884e-07	0.001863	0.0028014	0.003105	1	0	1	-360	360;
	123995909	103038889	0.0310289278	0.0136472229	-2.62549884e-07	0.0012282	0.0018492	0.0020562	1	0	1	-360	360;
	127100374	127100409	0.0269983539	0.0111294269	-2.62549884e-07	0.001863	0.0028014	0.003105	1	0	1	-360	360;
	127100654	127100661	0.00423293481	0.00447466985	-2.62549884e-07	0.0037812	0.005658	0.0062928	1	0	1	-360	360;
	127100661	127100668	0.0396172891	0.0443119796	-2.62549884e-07	0.0006624	0.0013662	0.0015318	1	0	1	-360	360;
	139703391	139703398	0.0592266117	0.0244147569	-2.62549884e-07	0.001863	0.0028014	0.003105	1	0	1	-360	360;
	148584898	148584899	0.00519754001	0.000923164041	-2.62549884e-07	0.001449	0.0021666	0.002415	1	0	1	-360	360;
	148690093	148690094	0.0457444837	0.0201194565	-2.62549884e-07	0.0012282	0.0018492	0.0020562	1	0	1	-360	360;
	103037461	148690091	2.62549884e-05	2.62549884e-05	-2.62549884e-07	6	8	10	1	0	1	-360	360;
	103038497	149915468	2.62549884e-05	2.62549884e-05	-2.62549884e-07	6	8	10	1	0	1	-360	360;
	103036971	150045813	0.00468347545	0.00495094003	-2.62549884e-07	0.0037812	0.005658	0.0062928	1	0	1	-360	360;
	103036943	150045812	2.62549884e-05	2.62549884e-05	-2.62549884e-07	6	8	10	1	0	1	-360	360;
	150045815	3734354	2.62549884e-05	2.62549884e-05	-2.62549884e-07	6	8	10	1	0	1	-360	360;
	103036887	150045829	2.62549884e-05	2.62549884e-05	-2.62549884e-07	6	8	10	1	0	1	-360	360;
	150116602	150116603	0.00324377127	0.00342901701	-2.62549884e-07	0.0037812	0.005658	0.0062928	1	0	1	-360	360;
	103036824	103036831	2.62549884e-05	2.62549884e-05	-2.62549884e-07	6	8	10	1	0	1	-360	360;
	103037055	103037062	0.0437210901	0.0180229757	-2.62549884e-07	0.001863	0.0028014	0.003105	1	0	1	-360	360;
	103037321	103037328	0.0235769317	0.0041876302	-2.62549884e-07	0.001449	0.0021666	0.002415	1	0	1	-360	360;
	103037342	103037349	0.0065317793	0.00116014572	-2.62549884e-07	0.001449	0.0021666	0.002415	1	0	1	-360	360;
	103037510	103037517	0.00658857776	0.00117023401	-2.62549884e-07	0.001449	0.0021666	0.002415	1	0	1	-360	360;
	103037615	103037636	0.00370473987	0.00703457337	-2.62549884e-07	0.003519	0.0052716	0.005865	1	0	1	-360	360;
	103037643	103037671	0.00572023019	0.00384220011	-2.62549884e-07	0.001656	0.002484	0.0027738	1	0	1	-360	360;
	103037643	103037664	0.00410941593	0.00780297371	-2.62549884e-07	0.003519	0.0052716	0.005865	1	0	1	-360	360;
	103037734	103037741	0.00343915238	0.00653027489	-2.62549884e-07	0.003519	0.0052716	0.005865	1	0	1	-360	360;
	103037755	103037762	0.0066233142	0.00700155936	-2.62549884e-07	0.0037812	0.005658	0.0062928	1	0	1	-360	360;
	103037888	103037951	2.62549884e-05	2.62549884e-05	-2.62549884e-07	6	8	10	1	0	1	-360	360;
	103038259	103038266	0.0106385574	0.007145773	-2.62549884e-07	0.001656	0.002484	0.0027738	1	0	1	-360	360;
	103037671	103038406	2.62549884e-05	2.62549884e-05	-2.62549884e-07	6	8	10	1	0	1	-360	360;
	103038441	103038448	2.62549884e-05	2.62549884e-05	-2.62549884e-07	6	8	10	1	0	1	-360	360;
	103037657	103038539	0.00534050099	0.0101405625	-2.62549884e-07	0.003519	0.0052716	0.005865	1	0	1	-360	360;
	103038595	103038602	0.0144525675	0.00970759125	-2.62549884e-07	0.001656	0.002484	0.0027738	1	0	1	-360	360;
	103038637	103038644	0.0616594526	0.041415808	-2.62549884e-07	0.001656	0.002484	0.0027738	1	0	1	-360	360;
	103038721	103038735	0.0941548323	0.105312279	-2.62549884e-07	0.0006624	0.0013662	0.0015318	1	0	1	-360	360;
	103038721	103038728	0.10741215	0.120140603	-2.62549884e-07	0.0006624	0.0013662	0.0015318	1	0	1	-360	360;
	103038581	103038819	2.62549884e-05	2.62549884e-05	-2.62549884e-07	6	8	10	1	0	1	-360	360;
	103039148	103039162	0.063459079	0.019373862	-2.62549884e-07	0.000828	0.001242	0.0013938	1	0	1	-360	360;
	103039295	103039302	0.0435697226	0.0191629475	-2.62549884e-07	0.0012282	0.0018492	0.0020562	1	0	1	-360	360;
	103039442	103039449	0.112106293	0.125391007	-2.62549884e-07	0.0006624	0.0013662	0.0015318	1	0	1	-360	360;
	103038161	104619461	2.62549884e-05	2.62549884e-05	-2.62549884e-07	6	8	10	1	0	1	-360	360;
	104619552	104619566	0.0144127207	0.00594130008	-2.62549884e-07	0.001863	0.0028014	0.003105	1	0	1	-360	360;
	104619552	104619559	0.0287732944	0.0118611038	-2.62549884e-07	0.001863	0.0028014	0.003105	1	0	1	-360	360;
	104620714	104620728	0.00397702045	0.00420414069	-2.62549884e-07	0.0037812	0.005658	0.0062928	1	0	1	-360	360;
	123954791	103037461	0.0841909652	0.0370290869	-2.62549884e-07	0.0012282	0.0018492	0.0020562	1	0	1	-360	360;
	123995909	123995916	0.000842680109	0.00160008402	-2.62549884e-07	0.003519	0.0052716	0.005865	1	0	1	-360	360;
	127100675	127100682	0.0671472374	0.0295328707	-2.62549884e-07	0.0012282	0.0018492	0.0020562	1	0	1	-360	360;
	139703265	139703272	0.0018334879	0.00193819499	-2.62549884e-07	0.0037812	0.005658	0.0062928	1	0	1	-360	360;
	139703384	139703391	0.0350967485	0.0144677968	-2.62549884e-07	0.001863	0.0028014	0.003105	1	0	1	-360	360;
	150045832	150045836	0.0906249361	0.101364087	-2.62549884e-07	0.0006624	0.0013662	0.0015318	1	0	1	-360	360;
	150045833	150045834	0.0195814673	0.0206997285	-2.62549884e-07	0.0037812	0.005658	0.0062928	1	0	1	-360	360;
	150224281	150224282	0.124738493	0.0380822789	-2.62549884e-07	0.000828	0.001242	0.0013938	1	0	1	-360	360;
	103037195	150224270	2.62549884e-05	2.62549884e-05	-2.62549884e-07	6	8	10	1	0	1	-360	360;
	150227621	150227623	0.035845603	0.016740351	-2.62549884e-07	0.0011178	0.0016836	0.0018768	1	0	1	-360	360;
	103037286	150342138	2.62549884e-05	2.62549884e-05	-2.62549884e-07	6	8	10	1	0	1	-360	360;
	103037083	103037090	2.62549884e-05	2.62549884e-05	-2.62549884e-07	6	8	10	1	0	1	-360	360;
	103037601	103037608	0.00975852155	0.0103158126	-2.62549884e-07	0.0037812	0.005658	0.0062928	1	0	1	-360	360;
	103037685	103037692	0.00950203142	0.0180424914	-2.62549884e-07	0.003519	0.0052716	0.005865	1	0	1	-360	360;
	103037713	103037720	0.00183959701	0.00349303341	-2.62549884e-07	0.003519	0.0052716	0.005865	1	0	1	-360	360;
	103037720	103037727	2.62549884e-05	2.62549884e-05	-2.62549884e-07	6	8	10	1	0	1	-360	360;
	103037979	103038042	2.62549884e-05	2.62549884e-05	-2.62549884e-07	6	8	10	1	0	1	-360	360;
	103037804	103038196	2.62549884e-05	2.62549884e-05	-2.62549884e-07	6	8	10	1	0	1	-360	360;
	103038210	103038217	0.00740378309	0.00935936775	-2.62549884e-07	0.0025944	0.0038916	0.0043332	1	0	1	-360	360;
	103038217	103038224	0.00528706845	0.00668355857	-2.62549884e-07	0.0025944	0.0038916	0.0043332	1	0	1	-360	360;
	103038231	103038259	0.00334801345	0.00423233484	-2.62549884e-07	0.0025944	0.0038916	0.0043332	1	0	1	-360	360;
	103037748	103038210	2.62549884e-05	2.62549884e-05	-2.62549884e-07	6	8	10	1	0	1	-360	360;
	103038336	103038343	0.127693078	0.0857696877	-2.62549884e-07	0.001656	0.002484	0.0027738	1	0	1	-360	360;
	103037678	103038329	2.62549884e-05	2.62549884e-05	-2.62549884e-07	6	8	10	1	0	1	-360	360;
	103038413	103038420	0.0412392872	0.0276998632	-2.62549884e-07	0.001656	0.002484	0.0027738	1	0	1	-360	360;
	103038469	103038476	0.0315146703	0.00559749618	-2.62549884e-07	0.001449	0.0021666	0.002415	1	0	1	-360	360;
	103038490	103038497	0.0215816005	0.00383322831	-2.62549884e-07	0.001449	0.0021666	0.002415	1	0	1	-360	360;
	103038553	103038560	0.00613924903	0.0116572281	-2.62549884e-07	0.003519	0.0052716	0.005865	1	0	1	-360	360;
	103038602	103038616	0.0159912075	0.0107410746	-2.62549884e-07	0.001656	0.002484	0.0027738	1	0	1	-360	360;
	103038665	103038672	0.00502126654	0.00337271582	-2.62549884e-07	0.001656	0.002484	0.0027738	1	0	1	-360	360;
	103038672	103038686	0.0288691795	0.0193910316	-2.62549884e-07	0.001656	0.002484	0.0027738	1	0	1	-360	360;
	103038707	103038714	0.0219563739	0.0245582274	-2.62549884e-07	0.0006624	0.0013662	0.0015318	1	0	1	-360	360;
	103038735	62144581	0.0552414066	0.0617875715	-2.62549884e-07	0.0006624	0.0013662	0.0015318	1	0	1	-360	360;
	103038756	103038770	0.080957987	0.0905515939	-2.62549884e-07	0.0006624	0.0013662	0.0015318	1	0	1	-360	360;
	103038805	103038812	0.00575869184	0.00102283334	-2.62549884e-07	0.001449	0.0021666	0.002415	1	0	1	-360	360;
	103038833	103038847	2.62549884e-05	2.62549884e-05	-2.62549884e-07	6	8	10	1	0	1	-360	360;
	103039183	103039190	0.0596408826	0.06670839	-2.62549884e-07	0.0006624	0.0013662	0.0015318	1	0	1	-360	360;
	103039239	103039246	0.0368493059	0.0151902467	-2.62549884e-07	0.001863	0.0028014	0.003105	1	0	1	-360	360;
	103039274	103039295	0.118893708	0.036297884	-2.62549884e-07	0.000828	0.001242	0.0013938	1	0	1	-360	360;
	103036901	103039442	2.62549884e-05	2.62549884e-05	-2.62549884e-07	6	8	10	1	0	1	-360	360;
	104619545	104619552	0.0191104849	0.00787784121	-2.62549884e-07	0.001863	0.0028014	0.003105	1	0	1	-360	360;
	104619566	103037916	0.0162188112	0.00668581777	-2.62549884e-07	0.001863	0.0028014	0.003105	1	0	1	-360	360;
	103037447	123954791	0.0507541181	0.0223228068	-2.62549884e-07	0.0012282	0.0018492	0.0020562	1	0	1	-360	360;
	103038560	123995902	2.62549884e-05	2.62549884e-05	-2.62549884e-07	6	8	10	1	0	1	-360	360;
	123995958	103038931	2.62549884e-05	2.62549884e-05	-2.62549884e-07	6	8	10	1	0	1	-360	360;
	103037944	127100360	0.0178978479	0.00737796057	-2.62549884e-07	0.001863	0.0028014	0.003105	1	0	1	-360	360;
	103037979	127100416	0.0198316561	0.00817512684	-2.62549884e-07	0.001863	0.0028014	0.003105	1	0	1	-360	360;
	127100381	127100388	0.0556453555	0.0229384695	-2.62549884e-07	0.001863	0.0028014	0.003105	1	0	1	-360	360;
	103036831	103036838	0.00829799474	0.00877187779	-2.62549884e-07	0.0037812	0.005658	0.0062928	1	0	1	-360	360;
	103036838	103036845	0.0203794195	0.0215432503	-2.62549884e-07	0.0037812	0.005658	0.0062928	1	0	1	-360	360;
	103037069	103037083	0.039984806	0.0164827818	-2.62549884e-07	0.001863	0.0028014	0.003105	1	0	1	-360	360;
	103037314	103037321	0.0110045013	0.00195457078	-2.62549884e-07	0.001449	0.0021666	0.002415	1	0	1	-360	360;
	103037608	103037615	0.00289814965	0.00550301695	-2.62549884e-07	0.003519	0.0052716	0.005865	1	0	1	-360	360;
	103037615	103037622	0.0554283412	0.0619966581	-2.62549884e-07	0.0006624	0.0013662	0.0015318	1	0	1	-360	360;
	103037636	103037643	0.00406871448	0.00772568965	-2.62549884e-07	0.003519	0.0052716	0.005865	1	0	1	-360	360;
	103037664	2809374	0.00299788716	0.00569239889	-2.62549884e-07	0.003519	0.0052716	0.005865	1	0	1	-360	360;
	103037650	103037657	2.62549884e-05	2.62549884e-05	-2.62549884e-07	6	8	10	1	0	1	-360	360;
	103037692	103037699	0.00596713899	0.0113304249	-2.62549884e-07	0.003519	0.0052716	0.005865	1	0	1	-360	360;
	103037629	103037685	2.62549884e-05	2.62549884e-05	-2.62549884e-07	6	8	10	1	0	1	-360	360;
	103038056	103038063	0.0239385646	0.0267753098	-2.62549884e-07	0.0006624	0.0013662	0.0015318	1	0	1	-360	360;
	103037923	103038056	2.62549884e-05	2.62549884e-05	-2.62549884e-07	6	8	10	1	0	1	-360	360;
	103038182	103038189	0.0144872839	0.0162040424	-2.62549884e-07	0.0006624	0.0013662	0.0015318	1	0	1	-360	360;
	103038224	103038238	0.0128203747	0.00861126974	-2.62549884e-07	0.001656	0.002484	0.0027738	1	0	1	-360	360;
	103038273	103038280	2.62549884e-05	2.62549884e-05	-2.62549884e-07	6	8	10	1	0	1	-360	360;
	103037706	103038301	2.62549884e-05	2.62549884e-05	-2.62549884e-07	6	8	10	1	0	1	-360	360;
	103038343	103038350	0.0238853682	0.016043474	-2.62549884e-07	0.001656	0.002484	0.0027738	1	0	1	-360	360;
	103038525	103038532	0.00458831301	0.000814955839	-2.62549884e-07	0.001449	0.0021666	0.002415	1	0	1	-360	360;
	103038602	103038609	0.0238331973	0.0160084315	-2.62549884e-07	0.001656	0.002484	0.0027738	1	0	1	-360	360;
	103038630	103038637	0.00975958806	0.00655538134	-2.62549884e-07	0.001656	0.002484	0.0027738	1	0	1	-360	360;
	103038623	103038630	2.62549884e-05	2.62549884e-05	-2.62549884e-07	6	8	10	1	0	1	-360	360;
	103038735	103038749	0.0970042499	0.108499356	-2.62549884e-07	0.0006624	0.0013662	0.0015318	1	0	1	-360	360;
	103038735	103038742	0.0796295554	0.0890657417	-2.62549884e-07	0.0006624	0.0013662	0.0015318	1	0	1	-360	360;
	103038756	103038763	0.0237130785	0.0265231033	-2.62549884e-07	0.0006624	0.0013662	0.0015318	1	0	1	-360	360;
	103038826	103038833	0.0529613894	0.0247336402	-2.62549884e-07	0.0011178	0.0016836	0.0018768	1	0	1	-360	360;
	103039246	103039253	0.0181336852	0.00322082486	-2.62549884e-07	0.001449	0.0021666	0.002415	1	0	1	-360	360;
	103037125	103039260	2.62549884e-05	2.62549884e-05	-2.62549884e-07	6	8	10	1	0	1	-360	360;
	103039316	103039323	0.0140257665	0.00578178744	-2.62549884e-07	0.001863	0.0028014	0.003105	1	0	1	-360	360;
	103039323	103039330	0.0144961498	0.00597569171	-2.62549884e-07	0.001863	0.0028014	0.003105	1	0	1	-360	360;
	104619461	104619468	0.00132955261	0.000667926906	-2.62549884e-07	0.0031878	0.0047886	0.0053268	1	0	1	-360	360;
	104620693	104620700	0.00413653698	0.00437276692	-2.62549884e-07	0.0037812	0.005658	0.0062928	1	0	1	-360	360;
	104620721	104620742	0.00197973923	0.000816100239	-2.62549884e-07	0.001863	0.0028014	0.003105	1	0	1	-360	360;
	103037440	123954784	0.00811405559	0.00356874481	-2.62549884e-07	0.0012282	0.0018492	0.0020562	1	0	1	-360	360;
	123995916	123995937	0.0148329648	0.0281648869	-2.62549884e-07	0.003519	0.0052716	0.005865	1	0	1	-360	360;
	123995951	123995965	0.00571031221	0.0108427613	-2.62549884e-07	0.003519	0.0052716	0.005865	1	0	1	-360	360;
	127100360	127100367	0.0156512118	0.00645183848	-2.62549884e-07	0.001863	0.0028014	0.003105	1	0	1	-360	360;
	127100367	127100381	0.0316295938	0.013038545	-2.62549884e-07	0.001863	0.0028014	0.003105	1	0	1	-360	360;
	150406177	150406179	0.00515684955	0.00545134764	-2.62549884e-07	0.0037812	0.005658	0.0062928	1	0	1	-360	360;
	150406178	150406180	0.00275633694	0.00291374622	-2.62549884e-07	0.0037812	0.005658	0.0062928	1	0	1	-360	360;
	150116603	149820974	2.62549884e-05	2.62549884e-05	-2.62549884e-07	6	8	10	1	0	1	-360	360;
	150224273	150224280	0.029321576	0.00895178713	-2.62549884e-07	0.000828	0.001242	0.0013938	1	0	1	-360	360;
	150224274	150224275	0.0268758736	0.00477357365	-2.62549884e-07	0.001449	0.0021666	0.002415	1	0	1	-360	360;
	150224278	150224279	0.0155627166	0.0027641808	-2.62549884e-07	0.001449	0.0021666	0.002415	1	0	1	-360	360;
	150405625	150405626	0.00351583458	0.00144931888	-2.62549884e-07	0.001863	0.0028014	0.003105	1	0	1	-360	360;
	150406174	150406175	0.00973748334	0.00401404507	-2.62549884e-07	0.001863	0.0028014	0.003105	1	0	1	-360	360;
	150406178	150406181	0.00620818926	0.00656272741	-2.62549884e-07	0.0037812	0.005658	0.0062928	1	0	1	-360	360;
	103036992	150116598	2.62549884e-05	2.62549884e-05	-2.62549884e-07	6	8	10	1	0	1	-360	360;
	150224280	150224281	0.0218672375	0.00961770464	-2.62549884e-07	0.0012282	0.0018492	0.0020562	1	0	1	-360	360;
	150224275	150224276	0.0283660537	0.0116932285	-2.62549884e-07	0.001863	0.0028014	0.003105	1	0	1	-360	360;
	150227621	150227622	0.0139798141	0.00248303267	-2.62549884e-07	0.001449	0.0021666	0.002415	1	0	1	-360	360;
	150227623	150227624	0.025404783	0.0284152766	-2.62549884e-07	0.0006624	0.0013662	0.0015318	1	0	1	-360	360;
	104400872	150405625	2.62549884e-05	2.62549884e-05	-2.62549884e-07	6	8	10	1	0	1	-360	360;
	150224271	150224274	0.0275956029	0.00842485285	-2.62549884e-07	0.000828	0.001242	0.0013938	1	0	1	-360	360;
	150224271	150224273	0.0569800317	0.0173958287	-2.62549884e-07	0.000828	0.001242	0.0013938	1	0	1	-360	360;
	150224272	150224284	0.0309852054	0.00945968808	-2.62549884e-07	0.000828	0.001242	0.0013938	1	0	1	-360	360;
	103037286	150224285	0.0144226805	0.00634342043	-2.62549884e-07	0.0012282	0.0018492	0.0020562	1	0	1	-360	360;
	150224282	150224283	0.131507089	0.0401487105	-2.62549884e-07	0.000828	0.001242	0.0013938	1	0	1	-360	360;
	150224275	150224277	0.00622426175	0.00256580333	-2.62549884e-07	0.001863	0.0028014	0.003105	1	0	1	-360	360;
	150227619	150227621	0.0739027934	0.0345135413	-2.62549884e-07	0.0011178	0.0016836	0.0018768	1	0	1	-360	360;
	150227620	150227625	0.011840586	0.00828468087	-2.62549884e-07	0.0016008	0.0024012	0.0026772	1	0	1	-360	360;
	150227625	150227626	0.140058945	0.156656078	-2.62549884e-07	0.0006624	0.0013662	0.0015318	1	0	1	-360	360;
	150227628	150227629	0.0369221745	0.0162392058	-2.62549884e-07	0.0012282	0.0018492	0.0020562	1	0	1	-360	360;
	150342140	150342141	0.0152267886	0.00256240506	-2.62549884e-07	0.0011178	0.0016836	0.0018768	1	0	1	-360	360;
	150406176	103037804	0.00394306457	0.00416824565	-2.62549884e-07	0.0037812	0.005658	0.0062928	1	0	1	-360	360;
	103037804	150406177	0.00354105344	0.00374327642	-2.62549884e-07	0.0037812	0.005658	0.0062928	1	0	1	-360	360;
	150406177	150406178	0.00521819727	0.00551619882	-2.62549884e-07	0.0037812	0.005658	0.0062928	1	0	1	-360	360;
	139703258	139703265	0.0245639519	0.0259667535	-2.62549884e-07	0.0037812	0.005658	0.0062928	1	0	1	-360	360;
	103037174	139703384	2.62549884e-05	2.62549884e-05	-2.62549884e-07	6	8	10	1	0	1	-360	360;
	148690092	148690093	0.0721126832	0.0317167859	-2.62549884e-07	0.0012282	0.0018492	0.0020562	1	0	1	-360	360;
	149774341	149774342	0.00946779952	0.0100084879	-2.62549884e-07	0.0037812	0.005658	0.0062928	1	0	1	-360	360;
	149774342	149774343	0.0104093696	0.0110038293	-2.62549884e-07	0.0037812	0.005658	0.0062928	1	0	1	-360	360;
	150045814	150045815	0.00517947686	0.00547526716	-2.62549884e-07	0.0037812	0.005658	0.0062928	1	0	1	-360	360;
	103036901	150045830	0.00570447385	0.00603024575	-2.62549884e-07	0.0037812	0.005658	0.0062928	1	0	1	-360	360;
	150045830	150045831	0.0302201944	0.0319460135	-2.62549884e-07	0.0037812	0.005658	0.0062928	1	0	1	-360	360;
	150224284	103037286	0.018675398	0.00821386159	-2.62549884e-07	0.0012282	0.0018492	0.0020562	1	0	1	-360	360;
	150227617	150227618	0.0951596461	0.0290519478	-2.62549884e-07	0.000828	0.001242	0.0013938	1	0	1	-360	360;
	150227618	150227619	0.0122286015	0.00855616954	-2.62549884e-07	0.0016008	0.0024012	0.0026772	1	0	1	-360	360;
	150227626	150227627	0.0380060818	0.0167159327	-2.62549884e-07	0.0012282	0.0018492	0.0020562	1	0	1	-360	360;
	150342142	150342143	0.00532239722	0.000803636473	-2.62549884e-07	0.0009522	0.0014352	0.0016008	1	0	1	-360	360;
	103038245	150342142	2.62549884e-05	2.62549884e-05	-2.62549884e-07	6	8	10	1	0	1	-360	360;
	150406180	103037853	0.00270711252	0.00286171068	-2.62549884e-07	0.0037812	0.005658	0.0062928	1	0	1	-360	360;
	150406179	150397169	2.62549884e-05	2.62549884e-05	-2.62549884e-07	6	8	10	1	0	1	-360	360;
	127100367	127100374	0.0140783794	0.00580347587	-2.62549884e-07	0.001863	0.0028014	0.003105	1	0	1	-360	360;
	127100367	103037979	0.0274895207	0.0113318987	-2.62549884e-07	0.001863	0.0028014	0.003105	1	0	1	-360	360;
	127100381	127100402	0.0181346198	0.00747556411	-2.62549884e-07	0.001863	0.0028014	0.003105	1	0	1	-360	360;
	127100381	127100395	0.0727064087	0.0299714814	-2.62549884e-07	0.001863	0.0028014	0.003105	1	0	1	-360	360;
	127100661	103037559	0.00379536407	0.00401211026	-2.62549884e-07	0.0037812	0.005658	0.0062928	1	0	1	-360	360;
	139703279	103037195	0.0176118138	0.00774607324	-2.62549884e-07	0.0012282	0.0018492	0.0020562	1	0	1	-360	360;
	103037174	103037188	0.00596517738	0.00630583757	-2.62549884e-07	0.0037812	0.005658	0.0062928	1	0	1	-360	360;
	148584895	148584898	2.62549884e-05	2.62549884e-05	-2.62549884e-07	6	8	10	1	0	1	-360	360;
	103037475	148690092	0.108115042	0.0475514361	-2.62549884e-07	0.0012282	0.0018492	0.0020562	1	0	1	-360	360;
	148690093	148690095	0.0347933572	0.0389164067	-2.62549884e-07	0.0006624	0.0013662	0.0015318	1	0	1	-360	360;
	104400872	149712402	0.00389157521	0.00411381583	-2.62549884e-07	0.0037812	0.005658	0.0062928	1	0	1	-360	360;
	149774346	103037440	2.62549884e-05	2.62549884e-05	-2.62549884e-07	6	8	10	1	0	1	-360	360;
	150045829	103036901	0.0188007984	0.0198744771	-2.62549884e-07	0.0037812	0.005658	0.0062928	1	0	1	-360	360;
	150045834	150045835	0.00172970926	0.00182848974	-2.62549884e-07	0.0037812	0.005658	0.0062928	1	0	1	-360	360;
	150045834	103036943	0.00259618254	0.0027444457	-2.62549884e-07	0.0037812	0.005658	0.0062928	1	0	1	-360	360;
	150116598	150116599	0.00469602011	0.00496420109	-2.62549884e-07	0.0037812	0.005658	0.0062928	1	0	1	-360	360;
	150116600	103037020	0.0121667196	0.00817221859	-2.62549884e-07	0.001656	0.002484	0.0027738	1	0	1	-360	360;
	150224277	150224278	0.0104901773	0.00432432519	-2.62549884e-07	0.001863	0.0028014	0.003105	1	0	1	-360	360;
	150227619	150227620	0.0122286015	0.00855616954	-2.62549884e-07	0.0016008	0.0024012	0.0026772	1	0	1	-360	360;
	150227626	150227628	0.0208372142	0.00916467715	-2.62549884e-07	0.0012282	0.0018492	0.0020562	1	0	1	-360	360;
	150406173	150406174	0.00211050364	0.00223103058	-2.62549884e-07	0.0037812	0.005658	0.0062928	1	0	1	-360	360;
	150406176	103037797	0.0144127207	0.00594130008	-2.62549884e-07	0.001863	0.0028014	0.003105	1	0	1	-360	360;
	150406180	150406182	0.0109334679	0.00450706115	-2.62549884e-07	0.001863	0.0028014	0.003105	1	0	1	-360	360;
	150406181	3787239	2.62549884e-05	2.62549884e-05	-2.62549884e-07	6	8	10	1	0	1	-360	360;
];

%%-----  OPF Data  -----%%
%% generator cost data
%	1	startup	shutdown	n	x1	y1	...	xn	yn
%	2	startup	shutdown	n	c(n-1)	...	c0
mpc.gencost = [
	2	0	0	3	0.25	20	0;
];
